Circuit: * D:\SUT\Electronic 2\Project#2_Electronic2_401102337\Draft2.asc

.step v1=0.3
.step v1=0.31
.step v1=0.32
.step v1=0.33
.step v1=0.34
.step v1=0.35
.step v1=0.36
.step v1=0.37
.step v1=0.38
.step v1=0.39
.step v1=0.4
.step v1=0.41
.step v1=0.42
.step v1=0.43
.step v1=0.44
.step v1=0.45
.step v1=0.46
.step v1=0.47
.step v1=0.48
.step v1=0.49
.step v1=0.5
.step v1=0.51
.step v1=0.52
.step v1=0.53
.step v1=0.54
.step v1=0.55
.step v1=0.56
.step v1=0.57
.step v1=0.58
.step v1=0.59
.step v1=0.6
.step v1=0.61
.step v1=0.62
.step v1=0.63
.step v1=0.64
.step v1=0.65
.step v1=0.66
.step v1=0.67
.step v1=0.68
.step v1=0.69
.step v1=0.7
.step v1=0.71
.step v1=0.72
.step v1=0.73
.step v1=0.74
.step v1=0.75
.step v1=0.76
.step v1=0.77
.step v1=0.78
.step v1=0.79
.step v1=0.8
.step v1=0.81
.step v1=0.82
.step v1=0.83
.step v1=0.84
.step v1=0.85
.step v1=0.86
.step v1=0.87
.step v1=0.88
.step v1=0.89
.step v1=0.9

Date: Sat Jun 29 10:14:43 2024
Total elapsed time: 4.671 seconds.

tnom = 27
temp = 27
method = trap
totiter = 37034
traniter = 0
tranpoints = 0
accept = 0
rejected = 0
matrix size = 7
fillins = 0
solver = Normal
Matrix Compiler1: 312 bytes object code size  0.4/0.2/[0.2]
Matrix Compiler2: 515 bytes object code size  0.3/0.3/[0.2]

